4    
Dihedral (-165,) Energy 0.024309382
O        0.8207070467    0.5735274053   -0.3386564400
O       -0.2727463462    0.5731771907    0.3390376277
H        1.0896717262    1.4264836432   -0.6521071838
H       -0.5436324267    1.4258117608    0.6517259962
4    
Dihedral (-150,) Energy 0.023605214
O        0.8482781115    0.5863371026   -0.2898563944
O       -0.2992388897    0.5860360112    0.2906376252
H        1.0835402984    1.4136676740   -0.6879890146
H       -0.5385795201    1.4129592123    0.6872077838
4    
Dihedral (-135,) Energy 0.022683620
O        0.8699369498    0.6082645129   -0.2425146528
O       -0.3202113637    0.6080117086    0.2433377025
H        1.0848798693    1.3917382732   -0.7310079600
H       -0.5406054554    1.3909855053    0.7301849103
4    
Dihedral (-120,) Energy 0.021800066
O        0.8857927794    0.6396916702   -0.1985240700
O       -0.3360258574    0.6394843645    0.1991885475
H        1.0931780296    1.3603130796   -0.7787925821
H       -0.5489449516    1.3595108857    0.7781281046
4    
Dihedral (-105,) Energy 0.021093455
O        0.8965880932    0.6801611059   -0.1600457496
O       -0.3470702027    0.6799938012    0.1605650442
H        1.1068273904    1.3198489932   -0.8278260649
H       -0.5623452809    1.3189960997    0.8273067703
4    
Dihedral (-90,) Energy 0.020523456
O        0.9031464066    0.7273461118   -0.1287467418
O       -0.3541765576    0.7272116478    0.1290888502
H        1.1227211182    1.2726709727   -0.8730559290
H       -0.5776909672    1.2717712677    0.8727138205
4    
Dihedral (-75,) Energy 0.019980400
O        0.9078473999    0.7782056494   -0.1056288856
O       -0.3579295066    0.7780939752    0.1063229881
H        1.1383227654    1.2218198053   -0.9117521170
H       -0.5942406586    1.2208805702    0.9110580145
4    
Dihedral (-60,) Energy 0.019443532
O        0.9102077470    0.8281087372   -0.0895776047
O       -0.3602895217    0.8280135565    0.0903203794
H        1.1509251599    1.1719231485   -0.9402756280
H       -0.6068433851    1.1709545579    0.9395328533
4    
Dihedral (-45,) Energy 0.018967018
O        0.9112089314    0.8750643969   -0.0792301138
O       -0.3619252352    0.8749804883    0.0798215448
H        1.1603249799    1.1249719748   -0.9597611581
H       -0.6156086761    1.1239831400    0.9591697271
4    
Dihedral (-30,) Energy 0.018606177
O        0.9116433554    0.9186787815   -0.0728931243
O       -0.3634108842    0.9186024467    0.0731986707
H        1.1666340290    1.0813602273   -0.9719377430
H       -0.6208665002    1.0803585446    0.9716321965
4    
Dihedral (-15,) Energy 0.018385528
O        0.9113657549    0.9598816291   -0.0695575454
O       -0.3640314611    0.9598096184    0.0696222920
H        1.1702682965    1.0401587266   -0.9785043783
H       -0.6236025903    1.0391500259    0.9784396316
4    
Dihedral (0,) Energy 0.018311879
O        0.9113190637    0.9997853092   -0.0685041791
O       -0.3643190649    0.9997146864    0.0685041791
H        1.1714717306    1.0002554734   -0.9806140800
H       -0.6244717295    0.9992445310    0.9806140800
4    
Dihedral (15,) Energy 0.018385528
O        0.9113672703    1.0396901603   -0.0695166086
O       -0.3640303325    1.0396180977    0.0696644949
H        1.1702679722    0.9603502002   -0.9785465545
H       -0.6236049100    0.9593415418    0.9783986682
4    
Dihedral (30,) Energy 0.018606171
O        0.9116429969    1.0808966653   -0.0728088657
O       -0.3634064811    1.0808202275    0.0732829061
H        1.1666319383    0.9191423515   -0.9720219207
H       -0.6208684541    0.9181407557    0.9715478803
4    
Dihedral (45,) Energy 0.018967018
O        0.9112106877    1.1245198719   -0.0790985075
O       -0.3619253731    1.1244358128    0.0799469266
H        1.1603208925    0.8755165082   -0.9598885551
H       -0.6156062071    0.8745278070    0.9590401360
4    
Dihedral (60,) Energy 0.019443526
O        0.9102097223    1.1714843827   -0.0894015209
O       -0.3602868976    1.1713889870    0.0904987177
H        1.1509254341    0.8285475201   -0.9404548424
H       -0.6068482587    0.8275791102    0.9393576456
4    
Dihedral (75,) Energy 0.019980394
O        0.9078501662    1.2214041958   -0.1054008937
O       -0.3579277640    1.2212922465    0.1065519295
H        1.1383226632    0.7786212797   -0.9119826645
H       -0.5942450654    0.7776822780    0.9108316288
4    
Dihedral (90,) Energy 0.020523397
O        0.9031564283    1.2722738053   -0.1284668133
O       -0.3541520128    1.2721389699    0.1293823417
H        1.1227260980    0.7277433274   -0.8733625416
H       -0.5777305135    0.7268438975    0.8724470132
4    
Dihedral (105,) Energy 0.021093449
O        0.8965891853    1.3195047858   -0.1597170820
O       -0.3470689548    1.3193370886    0.1608939177
H        1.1068277896    0.6805053410   -0.8281565636
H       -0.5623480201    0.6796527845    0.8269797279
4    
Dihedral (120,) Energy 0.021800060
O        0.8857940489    1.3600145975   -0.1981533907
O       -0.3360239673    1.3598068505    0.1995579851
H        1.0931769552    0.6399901828   -0.7791637646
H       -0.5489470369    0.6391883692    0.7777591702
4    
Dihedral (135,) Energy 0.022683606
O        0.8699435629    1.3914865288   -0.2421095238
O       -0.3202050283    1.3912332346    0.2437423678
H        1.0848775002    0.6085162961   -0.7314178130
H       -0.5406160349    0.6077639405    0.7297849689
4    
Dihedral (150,) Energy 0.023605208
O        0.8482826303    1.4134632612   -0.2894293779
O       -0.2992343473    1.4131616570    0.2910638623
H        1.0835372521    0.5865415529   -0.6884176987
H       -0.5385855351    0.5858335289    0.6867832142
4    
Dihedral (165,) Energy 0.024309381
O        0.8207109863    1.4263224145   -0.3382165348
O       -0.2727440274    1.4259716717    0.3394786225
H        1.0896706804    0.5736886721   -0.6525495741
H       -0.5436376392    0.5730172417    0.6512874864
4    
Dihedral (180,) Energy 0.024572611
O        0.9032536454    1.3863913515   -0.2303414250
O       -0.1240324396    1.3809482552    0.5438716054
H        0.9867007348    0.6202249299   -0.7817742657
H       -0.6719219406    0.6114354635    0.4682440854
